10
Next
H	6.70836	7.13301	0.1
H	6.02393	1.24081	0.1
H	1.814	3.4046	0.1
H	2.08898	2.25875	0.1
H	1.64229	0.753064	0.1
H	2.32505	4.57054	0.1
H	3.63509	3.22172	0.1
H	0.122485	1.15853	0.1
O	0.555843	0.0146166	0.1
O	2.56762	9.54534	0.1
10
Next
H	4.91311	6.94909	0.1
H	7.41647	9.78948	0.1
H	1.39547	3.03343	0.1
H	1.0343	1.86079	0.1
H	1.28851	0.57791	0.1
H	2.62591	4.76578	0.1
H	5.1252	2.98248	0.1
H	9.51415	0.812138	0.1
O	9.65399	9.40071	0.1
O	3.25179	9.37402	0.1
10
Next
H	5.27516	8.83644	0.1
H	6.36124	1.13256	0.1
H	1.29518	4.02039	0.1
H	0.0835797	3.15654	0.1
H	1.52288	9.49591	0.1
H	2.98731	4.49308	0.1
H	4.43928	3.5514	0.1
H	9.88699	1.43611	0.1
O	9.5109	9.60204	0.1
O	2.9204	0.41191	0.1
10
Next
H	6.10554	7.60674	0.1
H	6.80986	1.09149	0.1
H	1.68368	2.70216	0.1
H	0.677736	2.10047	0.1
H	1.26384	0.767352	0.1
H	2.34853	5.17719	0.1
H	4.15241	3.95352	0.1
H	9.98108	1.2395	0.1
O	0.0309568	0.0899422	0.1
O	3.34749	8.95112	0.1
10
Next
H	7.29961	7.88074	0.1
H	5.49547	2.72133	0.1
H	0.702728	3.58106	0.1
H	1.53412	2.28993	0.1
H	1.5566	0.580883	0.1
H	1.43132	4.41973	0.1
H	3.42053	2.6825	0.1
H	0.554876	1.21336	0.1
O	0.519183	0.0916735	0.1
O	3.39723	9.69607	0.1
10
Next
H	5.99634	7.67542	0.1
H	6.76339	0.929858	0.1
H	1.75972	2.63237	0.1
H	1.15155	1.77787	0.1
H	1.60378	0.0873241	0.1
H	2.36455	5.58923	0.1
H	3.64656	4.45799	0.1
H	9.82399	1.68959	0.1
O	0.30931	0.652039	0.1
O	3.35106	8.92052	0.1
10
Next
H	6.55262	7.97711	0.1
H	6.14384	1.64061	0.1
H	0.998554	4.18775	0.1
H	9.27357	3.41264	0.1
H	1.79137	0.178182	0.1
H	2.33265	5.64475	0.1
H	3.61137	4.12446	0.1
H	0.701515	1.73202	0.1
O	0.667073	0.600928	0.1
O	3.68871	9.95298	0.1
10
Next
H	5.00128	8.12352	0.1
H	7.06944	1.20322	0.1
H	1.39845	3.47126	0.1
H	0.361949	2.49861	0.1
H	1.73969	0.0171285	0.1
H	3.43794	4.84595	0.1
H	3.99417	3.69309	0.1
H	8.93772	1.93063	0.1
O	0.482891	0.40082	0.1
O	3.77147	8.9204	0.1
10
Next
H	5.4988	7.37894	0.1
H	6.49087	1.24833	0.1
H	1.74919	3.4088	0.1
H	0.993023	2.29304	0.1
H	1.6769	0.0192376	0.1
H	2.49527	5.41533	0.1
H	3.80874	3.78328	0.1
H	0.416408	1.20938	0.1
O	0.514209	9.6136	0.1
O	3.71569	8.37048	0.1
10
Next
H	6.01144	7.7023	0.1
H	5.30401	1.80109	0.1
H	1.07219	3.25532	0.1
H	0.411134	2.41942	0.1
H	2.17905	0.119622	0.1
H	2.73518	4.40898	0.1
H	3.41626	3.11616	0.1
H	9.69956	1.33071	0.1
O	0.609259	9.55158	0.1
O	3.38137	9.13405	0.1
10
Next
H	6.87483	7.04585	0.1
H	6.60272	1.68254	0.1
H	1.07048	3.27304	0.1
H	2.09696	2.00937	0.1
H	2.12427	0.98615	0.1
H	1.18541	4.73449	0.1
H	3.8934	2.3932	0.1
H	0.623412	1.59571	0.1
O	0.409046	0.552368	0.1
O	3.25202	9.1697	0.1
10
Next
H	6.50235	7.32762	0.1
H	5.99974	1.82066	0.1
H	1.96899	3.74288	0.1
H	1.7326	1.90691	0.1
H	1.6741	0.554234	0.1
H	2.17918	4.95885	0.1
H	4.71451	2.78254	0.1
H	9.54959	1.67887	0.1
O	0.685674	9.66225	0.1
O	2.57891	9.96753	0.1
10
Next
H	4.85101	7.05955	0.1
H	7.22884	9.771	0.1
H	1.52831	3.04671	0.1
H	0.532519	2.3648	0.1
H	1.64278	0.670786	0.1
H	2.68514	4.63869	0.1
H	4.32447	2.60342	0.1
H	0.132518	0.866115	0.1
O	0.263359	9.01234	0.1
O	2.93868	0.0737632	0.1
10
Next
H	7.24374	7.14825	0.1
H	6.62191	2.06827	0.1
H	1.51023	3.76844	0.1
H	1.61275	2.00746	0.1
H	1.94041	0.774076	0.1
H	2.07283	4.88164	0.1
H	4.5449	3.42527	0.1
H	9.90507	0.832114	0.1
O	0.883401	0.0841003	0.1
O	2.92809	0.212118	0.1
10
Next
H	5.77004	7.92346	0.1
H	6.34182	0.993642	0.1
H	1.57975	4.1118	0.1
H	0.984661	2.35209	0.1
H	0.981632	0.549878	0.1
H	2.60924	4.86758	0.1
H	3.36556	3.10299	0.1
H	9.92548	1.5423	0.1
O	0.0383908	0.171969	0.1
O	2.78488	0.50158	0.1
10
Next
H	5.70546	7.94292	0.1
H	7.12053	1.27211	0.1
H	1.38035	3.6207	0.1
H	9.96931	3.07802	0.1
H	1.78216	0.757838	0.1
H	3.17167	4.96743	0.1
H	3.10724	3.873	0.1
H	9.58095	1.19882	0.1
O	0.395306	0.111146	0.1
O	2.39579	8.91822	0.1
10
Next
H	5.94764	7.88646	0.1
H	6.35624	0.959594	0.1
H	1.99058	3.66606	0.1
H	9.87352	3.57736	0.1
H	1.0873	9.89735	0.1
H	2.7923	4.69838	0.1
H	3.6637	3.85861	0.1
H	9.62455	1.6477	0.1
O	0.262157	0.715368	0.1
O	2.41901	8.92312	0.1
10
Next
H	6.67137	7.17886	0.1
H	6.14019	1.32162	0.1
H	1.94147	3.38599	0.1
H	1.99904	2.3016	0.1
H	1.63125	0.675472	0.1
H	2.39391	4.68748	0.1
H	3.6391	3.0559	0.1
H	0.13661	1.28576	0.1
O	0.474511	9.99307	0.1
O	2.67524	9.45808	0.1
10
Next
H	5.09023	8.36822	0.1
H	7.63536	1.15072	0.1
H	2.34694	3.8226	0.1
H	0.7061	2.16359	0.1
H	1.30028	8.64766	0.1
H	2.15498	4.94575	0.1
H	4.04385	3.60429	0.1
H	9.34733	1.52488	0.1
O	9.80138	0.00290114	0.1
O	2.90167	8.23977	0.1
10
Next
H	6.35335	7.18811	0.1
H	5.86779	1.65543	0.1
H	1.93676	3.73048	0.1
H	1.62849	1.98593	0.1
H	1.7054	0.424669	0.1
H	2.34713	4.94841	0.1
H	4.72824	2.86433	0.1
H	9.64612	1.66738	0.1
O	0.806021	9.6173	0.1
O	2.74146	0.0295881	0.1
10
Next
H	5.08171	7.75447	0.1
H	5.20934	0.394271	0.1
H	2.28503	3.30093	0.1
H	0.0434388	2.64312	0.1
H	1.35723	1.17659	0.1
H	1.95416	4.30262	0.1
H	3.91331	3.0808	0.1
H	9.40546	1.26782	0.1
O	0.730954	0.057947	0.1
O	3.57188	9.53964	0.1
10
Next
H	5.09394	8.37776	0.1
H	6.85154	1.50902	0.1
H	0.972278	3.37745	0.1
H	0.0637375	2.44931	0.1
H	1.71944	9.78022	0.1
H	2.97911	4.417	0.1
H	3.25441	2.93069	0.1
H	0.728651	1.58854	0.1
O	0.629548	0.434987	0.1
O	2.71592	0.166119	0.1
10
Next
H	6.17273	8.35037	0.1
H	6.7598	1.49872	0.1
H	2.07905	2.58248	0.1
H	9.98916	2.71392	0.1
H	2.13495	0.917935	0.1
H	3.13843	4.55206	0.1
H	4.02868	3.88669	0.1
H	0.0616541	1.39489	0.1
O	0.973132	0.794342	0.1
O	3.02548	8.8257	0.1
10
Next
H	5.90972	7.83879	0.1
H	6.48861	1.33443	0.1
H	1.48905	2.64504	0.1
H	0.687267	1.9321	0.1
H	1.80461	0.844021	0.1
H	2.34587	5.35579	0.1
H	4.02712	4.0609	0.1
H	9.84529	1.36546	0.1
O	0.409089	0.260113	0.1
O	3.28015	8.76695	0.1
10
Next
H	4.79224	8.18049	0.1
H	6.98141	0.869939	0.1
H	0.793539	3.4834	0.1
H	0.405371	2.58643	0.1
H	1.49096	9.9889	0.1
H	2.95307	4.46334	0.1
H	3.80795	3.328	0.1
H	0.677407	1.50321	0.1
O	0.142696	0.263791	0.1
O	2.46936	9.77282	0.1
10
Next
H	6.28502	7.39225	0.1
H	7.3285	0.332386	0.1
H	1.80486	2.93481	0.1
H	1.4582	1.69516	0.1
H	1.757	0.602814	0.1
H	1.52223	5.45922	0.1
H	3.4769	3.47693	0.1
H	9.7351	0.943649	0.1
O	0.779422	9.8252	0.1
O	2.55349	8.47247	0.1
10
Next
H	5.86238	8.42486	0.1
H	6.78304	1.06356	0.1
H	1.85089	3.1979	0.1
H	0.0523212	3.20142	0.1
H	1.81007	1.07393	0.1
H	2.93989	4.80513	0.1
H	4.10176	3.62832	0.1
H	9.77153	1.57666	0.1
O	0.305009	0.107829	0.1
O	3.44472	9.78669	0.1
10
Next
H	5.2803	8.31726	0.1
H	6.43709	1.62979	0.1
H	2.29525	3.54649	0.1
H	1.31466	2.24429	0.1
H	0.875048	0.0650608	0.1
H	2.80309	5.08341	0.1
H	4.66857	3.18281	0.1
H	0.139323	1.54186	0.1
O	9.79287	9.08274	0.1
O	2.73524	9.76498	0.1
10
Next
H	5.76313	8.38421	0.1
H	6.91941	1.73106	0.1
H	1.7745	3.147	0.1
H	0.416682	3.57745	0.1
H	1.36942	0.5132	0.1
H	2.1752	4.50875	0.1
H	2.86115	3.60668	0.1
H	0.190996	1.59777	0.1
O	9.87069	0.25412	0.1
O	3.65587	0.0852497	0.1
10
Next
H	5.33424	7.15953	0.1
H	6.60224	0.997741	0.1
H	1.4691	2.60759	0.1
H	0.254647	2.82587	0.1
H	1.69535	0.395846	0.1
H	2.25114	4.73867	0.1
H	3.28604	4.48199	0.1
H	9.42281	1.41828	0.1
O	0.73225	0.821458	0.1
O	3.00347	0.0186202	0.1
10
Next
H	5.21657	8.22609	0.1
H	5.60021	1.69527	0.1
H	2.4375	3.44203	0.1
H	1.33243	2.25858	0.1
H	1.51054	1.02255	0.1
H	1.41283	5.19858	0.1
H	3.60995	3.55453	0.1
H	9.37999	1.86398	0.1
O	0.4715	9.83217	0.1
O	3.56397	9.87067	0.1
10
Next
H	6.29165	7.85636	0.1
H	5.32073	1.93089	0.1
H	1.86235	2.43007	0.1
H	0.0931172	2.55149	0.1
H	1.55237	0.147376	0.1
H	2.46085	4.69111	0.1
H	3.87267	2.26479	0.1
H	0.129996	0.867601	0.1
O	0.121476	8.98381	0.1
O	3.34286	9.65644	0.1
10
Next
H	6.53672	8.00053	0.1
H	6.06486	1.57785	0.1
H	1.0308	4.19064	0.1
H	9.16459	3.42211	0.1
H	1.90107	0.24803	0.1
H	2.28007	5.6251	0.1
H	3.59549	4.08543	0.1
H	0.626276	1.73805	0.1
O	0.779851	0.565244	0.1
O	3.69304	9.79428	0.1
10
Next
H	6.45654	7.58874	0.1
H	6.45831	1.58463	0.1
H	1.22058	3.66929	0.1
H	2.59758	1.91627	0.1
H	1.85225	0.815307	0.1
H	1.26649	5.06704	0.1
H	3.97626	2.66813	0.1
H	0.183465	1.13537	0.1
O	0.39132	9.92532	0.1
O	3.59425	0.428172	0.1
10
Next
H	5.44899	8.24394	0.1
H	6.9643	1.86484	0.1
H	1.44593	3.93451	0.1
H	0.445944	2.99764	0.1
H	1.35837	9.91507	0.1
H	2.87567	4.96689	0.1
H	3.65657	2.36354	0.1
H	0.264551	1.69186	0.1
O	9.84449	9.85202	0.1
O	3.03817	0.077883	0.1
10
Next
H	5.84165	7.18873	0.1
H	6.46032	1.5142	0.1
H	1.7022	2.99358	0.1
H	0.4789	3.24749	0.1
H	1.58692	0.038948	0.1
H	2.70939	4.61155	0.1
H	3.87496	3.89112	0.1
H	9.3561	1.3284	0.1
O	0.531585	1.08647	0.1
O	3.90037	9.29054	0.1
10
Next
H	6.56279	7.02466	0.1
H	6.16009	1.27726	0.1
H	1.66424	3.72825	0.1
H	1.99704	2.29214	0.1
H	1.2443	0.558432	0.1
H	1.92387	5.15333	0.1
H	3.75488	3.46129	0.1
H	9.68359	1.30908	0.1
O	0.208879	9.88294	0.1
O	3.08207	9.21386	0.1
10
Next
H	6.24311	6.83067	0.1
H	5.90751	1.91125	0.1
H	2.16766	4.17127	0.1
H	1.55141	1.94546	0.1
H	1.65685	0.409438	0.1
H	1.51371	5.09991	0.1
H	3.94715	2.67328	0.1
H	9.72694	1.41535	0.1
O	0.48012	0.0251049	0.1
O	3.17122	9.67455	0.1
10
Next
H	6.03052	6.80518	0.1
H	6.93902	1.26295	0.1
H	1.96492	2.56978	0.1
H	1.66987	1.47171	0.1
H	1.6662	0.0093362	0.1
H	1.76449	5.19125	0.1
H	4.06439	2.95221	0.1
H	0.482443	1.01903	0.1
O	9.82061	0.0582277	0.1
O	2.21727	8.95139	0.1
10
Next
H	6.38775	7.62222	0.1
H	6.11014	0.991865	0.1
H	1.55122	2.6073	0.1
H	1.3774	1.44521	0.1
H	1.41428	9.72864	0.1
H	2.23723	5.00696	0.1
H	3.31005	4.5404	0.1
H	9.58392	1.57098	0.1
O	0.037745	0.315638	0.1
O	3.25997	8.56269	0.1
10
Next
H	5.8872	7.18701	0.1
H	6.3392	1.11194	0.1
H	1.4199	2.64185	0.1
H	1.30841	1.49467	0.1
H	1.39887	0.0108977	0.1
H	1.93461	5.41816	0.1
H	3.36653	4.5988	0.1
H	9.89309	1.57995	0.1
O	0.211651	0.431931	0.1
O	2.90142	8.76542	0.1
10
Next
H	7.0047	6.26997	0.1
H	5.59302	1.77828	0.1
H	1.1874	3.94233	0.1
H	1.27476	1.68627	0.1
H	1.59983	0.265494	0.1
H	0.955421	4.95799	0.1
H	3.91636	2.89385	0.1
H	9.73444	1.02224	0.1
O	9.71896	0.0357428	0.1
O	2.68737	0.0166905	0.1
10
Next
H	6.11445	7.45375	0.1
H	7.23033	0.444123	0.1
H	2.01494	2.89731	0.1
H	1.60729	1.72984	0.1
H	1.75919	0.546287	0.1
H	1.49252	5.52365	0.1
H	3.54888	3.54642	0.1
H	9.76882	1.15247	0.1
O	0.649576	9.75685	0.1
O	2.45655	8.62531	0.1
10
Next
H	5.6729	8.19853	0.1
H	6.72428	1.41627	0.1
H	1.84711	3.47138	0.1
H	0.721251	2.79896	0.1
H	1.71127	0.997119	0.1
H	2.68835	5.11928	0.1
H	2.88237	3.34961	0.1
H	9.71499	1.30044	0.1
O	9.52513	9.82066	0.1
O	2.85538	0.115662	0.1
10
Next
H	6.1926	7.94793	0.1
H	6.58493	1.22075	0.1
H	1.93231	2.9022	0.1
H	0.827088	2.61085	0.1
H	1.72066	0.606768	0.1
H	2.93524	4.43345	0.1
H	3.03578	2.83147	0.1
H	9.93264	0.904522	0.1
O	9.94309	9.55506	0.1
O	3.15001	9.86483	0.1
10
Next
H	6.74696	7.26205	0.1
H	6.30968	1.24766	0.1
H	1.84445	3.43285	0.1
H	1.90411	2.2671	0.1
H	1.55972	0.714587	0.1
H	2.17054	4.75463	0.1
H	3.40226	3.1582	0.1
H	0.334077	1.29837	0.1
O	0.546527	0.340165	0.1
O	2.69431	9.30993	0.1
10
Next
H	5.54507	7.47217	0.1
H	6.95542	0.968703	0.1
H	1.72202	2.64119	0.1
H	9.74348	3.01133	0.1
H	1.76451	0.437937	0.1
H	2.08124	4.93663	0.1
H	3.01243	3.96189	0.1
H	9.86246	1.44711	0.1
O	0.624107	0.685286	0.1
O	3.12048	0.469535	0.1
10
Next
H	5.11855	8.2408	0.1
H	5.35108	1.1087	0.1
H	1.91159	3.04336	0.1
H	0.188479	3.04339	0.1
H	1.32188	0.758179	0.1
H	2.17589	4.20885	0.1
H	3.73494	3.5494	0.1
H	9.46915	1.18007	0.1
O	0.211265	9.93787	0.1
O	3.4072	9.48242	0.1
10
Next
H	6.26109	8.39139	0.1
H	6.96085	1.46259	0.1
H	1.86838	3.4992	0.1
H	0.365996	3.40783	0.1
H	1.77084	1.32147	0.1
H	2.72242	4.82769	0.1
H	5.10583	3.40605	0.1
H	9.70313	1.50927	0.1
O	0.0359419	0.420179	0.1
O	2.92989	0.0181937	0.1
10
Next
H	5.92532	7.02514	0.1
H	6.60209	1.54811	0.1
H	1.83732	2.78919	0.1
H	1.95253	1.61167	0.1
H	1.75332	0.105653	0.1
H	1.623	4.97913	0.1
H	4.59538	2.99718	0.1
H	0.648623	1.29089	0.1
O	9.68641	9.82446	0.1
O	2.46559	8.94377	0.1
