10
Next
H	0.403818	8.31055	0.1
H	2.28663	4.6495	0.1
H	1.02843	9.32418	0.1
H	0.820271	1.5802	0.1
H	9.22899	3.36006	0.1
H	6.23262	0.250114	0.1
H	3.93494	9.48215	0.1
H	0.913375	4.44987	0.1
O	5.93578	7.65198	0.1
O	3.31136	1.32547	0.1
10
Next
H	0.893204	8.41778	0.1
H	2.48421	2.63579	0.1
H	2.29697	8.92189	0.1
H	4.73977	9.99154	0.1
H	1.2504	5.72176	0.1
H	0.103291	1.57233	0.1
H	4.98273	7.47461	0.1
H	0.30766	2.93129	0.1
O	6.15005	5.47999	0.1
O	7.63048	9.22368	0.1
10
Next
H	1.63165	9.19418	0.1
H	3.46706	2.40326	0.1
H	9.57296	8.82237	0.1
H	2.38817	2.46051	0.1
H	1.42007	1.8024	0.1
H	7.67468	9.7244	0.1
H	2.66273	6.72442	0.1
H	2.65504	4.66845	0.1
O	5.1098	8.33789	0.1
O	1.58906	0.351022	0.1
10
Next
H	0.401073	2.29993	0.1
H	5.12113	5.93697	0.1
H	4.6777	3.11755	0.1
H	3.11062	0.419265	0.1
H	6.30379	8.35685	0.1
H	8.52031	1.40532	0.1
H	4.6786	0.734357	0.1
H	2.48199	8.74754	0.1
O	9.67299	5.69882	0.1
O	3.19168	6.12449	0.1
10
Next
H	4.21138	9.17055	0.1
H	0.272305	9.72709	0.1
H	3.51779	5.56327	0.1
H	2.96036	9.25792	0.1
H	0.73543	0.857171	0.1
H	3.45245	2.47126	0.1
H	8.19305	2.39455	0.1
H	1.02258	4.19815	0.1
O	3.05186	4.0526	0.1
O	2.89589	6.4851	0.1
10
Next
H	0.665078	9.08223	0.1
H	3.32566	3.14816	0.1
H	2.36408	8.07713	0.1
H	5.24167	0.0950989	0.1
H	2.24307	5.34621	0.1
H	0.170469	1.574	0.1
H	3.70353	8.11747	0.1
H	1.30259	3.02786	0.1
O	6.44257	5.34	0.1
O	6.54067	9.427	0.1
10
Next
H	0.495488	7.88891	0.1
H	1.53135	5.24619	0.1
H	8.79865	5.79093	0.1
H	3.34096	4.10692	0.1
H	8.25647	2.54473	0.1
H	4.90389	3.72371	0.1
H	4.34605	8.50428	0.1
H	1.14668	3.04321	0.1
O	4.42901	5.32835	0.1
O	2.48532	2.54004	0.1
10
Next
H	9.59271	7.78301	0.1
H	5.51024	3.05139	0.1
H	8.99997	6.52473	0.1
H	2.53354	2.26242	0.1
H	9.95542	4.67922	0.1
H	8.4924	0.626586	0.1
H	4.74943	6.74371	0.1
H	2.01306	5.83666	0.1
O	6.31101	7.82749	0.1
O	2.26555	0.575885	0.1
10
Next
H	9.16844	8.84196	0.1
H	5.67273	2.88416	0.1
H	7.88519	8.81692	0.1
H	2.94418	1.7649	0.1
H	0.0525738	1.5757	0.1
H	8.88913	1.21545	0.1
H	2.59924	6.78443	0.1
H	2.50285	5.37906	0.1
O	7.01554	6.76257	0.1
O	3.58599	8.54676	0.1
10
Next
H	2.50174	1.77839	0.1
H	7.02787	1.22762	0.1
H	8.44293	9.22221	0.1
H	0.451878	9.95014	0.1
H	6.4466	3.68157	0.1
H	4.60669	0.608723	0.1
H	3.0215	8.85913	0.1
H	7.94789	7.92457	0.1
O	5.21227	4.85998	0.1
O	7.1097	6.85286	0.1
10
Next
H	1.26418	9.33088	0.1
H	3.32887	4.09029	0.1
H	7.84165	6.49997	0.1
H	3.48142	0.300116	0.1
H	8.14922	3.26169	0.1
H	6.60064	2.7655	0.1
H	4.58365	8.93659	0.1
H	2.82119	5.22598	0.1
O	7.13068	8.25213	0.1
O	4.50519	0.246145	0.1
10
Next
H	5.78082	2.08339	0.1
H	8.40463	1.84198	0.1
H	8.87187	8.33809	0.1
H	0.0465511	1.75236	0.1
H	5.87765	3.51205	0.1
H	8.33083	0.273848	0.1
H	0.384328	8.65163	0.1
H	0.317851	6.06058	0.1
O	3.67181	4.88479	0.1
O	7.37504	4.25521	0.1
10
Next
H	9.23503	8.10601	0.1
H	5.77331	2.06768	0.1
H	9.22894	6.62934	0.1
H	1.37624	2.83774	0.1
H	0.113109	5.13561	0.1
H	8.62362	0.591761	0.1
H	4.7957	5.41089	0.1
H	3.26759	4.9835	0.1
O	6.31705	6.89811	0.1
O	1.98361	1.61681	0.1
10
Next
H	1.21824	9.14478	0.1
H	2.8122	3.31709	0.1
H	2.75864	8.42747	0.1
H	5.09915	9.93526	0.1
H	1.97166	5.45489	0.1
H	0.15879	1.73726	0.1
H	3.81141	8.04049	0.1
H	1.10348	3.44458	0.1
O	6.98301	5.2105	0.1
O	6.80783	9.13928	0.1
10
Next
H	2.69117	2.22614	0.1
H	8.57781	0.662992	0.1
H	9.40643	9.89046	0.1
H	2.23852	9.55247	0.1
H	5.75729	3.50766	0.1
H	4.95525	1.28723	0.1
H	3.11444	0.135657	0.1
H	8.2881	8.16959	0.1
O	4.77001	4.98828	0.1
O	6.18919	8.51736	0.1
10
Next
H	8.49891	1.8311	0.1
H	5.92041	5.79918	0.1
H	5.87035	3.05023	0.1
H	6.34823	0.0138856	0.1
H	6.91056	7.83082	0.1
H	7.78628	2.71539	0.1
H	3.57521	0.109189	0.1
H	2.47478	8.26355	0.1
O	1.60707	6.41904	0.1
O	3.21928	2.41701	0.1
10
Next
H	4.15409	9.93917	0.1
H	6.5122	1.29866	0.1
H	9.34819	1.77483	0.1
H	9.40171	4.0216	0.1
H	4.78427	1.36155	0.1
H	7.99548	0.892535	0.1
H	1.01252	8.01969	0.1
H	7.34102	6.49617	0.1
O	3.65199	5.46594	0.1
O	6.35061	7.13603	0.1
10
Next
H	0.319023	7.93525	0.1
H	1.87894	3.89657	0.1
H	0.889972	6.11785	0.1
H	3.78084	4.88463	0.1
H	9.15707	3.98336	0.1
H	5.13173	2.14894	0.1
H	4.95433	9.86596	0.1
H	0.757151	3.73766	0.1
O	6.40182	7.53655	0.1
O	3.10065	2.75707	0.1
10
Next
H	9.41149	8.41063	0.1
H	5.44746	3.5194	0.1
H	0.603263	6.41521	0.1
H	2.09832	2.87641	0.1
H	0.152813	3.66322	0.1
H	7.06901	1.06152	0.1
H	5.19109	6.68641	0.1
H	1.95021	5.75485	0.1
O	6.00878	7.54163	0.1
O	1.67472	0.661742	0.1
10
Next
H	4.74224	0.347538	0.1
H	0.49779	2.15619	0.1
H	9.90147	1.00844	0.1
H	3.07475	2.75128	0.1
H	4.83418	4.43483	0.1
H	6.11975	1.40526	0.1
H	0.357966	9.71925	0.1
H	8.52673	5.32142	0.1
O	6.13094	9.40204	0.1
O	8.11413	3.64101	0.1
10
Next
H	0.0164537	9.44684	0.1
H	4.93437	3.22588	0.1
H	0.77688	7.80166	0.1
H	4.74992	2.13812	0.1
H	9.99807	2.3492	0.1
H	7.93961	9.60599	0.1
H	1.90782	7.35967	0.1
H	2.93481	5.45793	0.1
O	4.72154	8.05452	0.1
O	1.55376	1.09606	0.1
10
Next
H	4.02766	1.34948	0.1
H	1.36695	2.93079	0.1
H	9.03031	8.81229	0.1
H	8.69274	2.04977	0.1
H	6.94563	3.79056	0.1
H	5.02039	0.767203	0.1
H	0.944964	0.071696	0.1
H	0.863432	6.5876	0.1
O	5.36076	3.8492	0.1
O	6.47222	6.04306	0.1
10
Next
H	9.22646	1.28796	0.1
H	2.77093	5.24077	0.1
H	6.33129	3.98104	0.1
H	3.17271	8.70818	0.1
H	6.34298	0.104192	0.1
H	7.871	1.05396	0.1
H	3.63068	1.35141	0.1
H	1.63355	8.15597	0.1
O	1.91446	5.85347	0.1
O	3.29249	2.61991	0.1
10
Next
H	4.89704	0.910957	0.1
H	0.270662	1.94796	0.1
H	9.30242	0.909118	0.1
H	2.79356	2.22593	0.1
H	5.00285	4.38599	0.1
H	6.7076	0.842987	0.1
H	9.73144	9.64601	0.1
H	8.99502	5.54893	0.1
O	7.00492	9.69961	0.1
O	8.10564	3.94825	0.1
10
Next
H	0.410516	9.0219	0.1
H	6.44347	4.39156	0.1
H	1.66826	7.3332	0.1
H	3.51259	2.84273	0.1
H	1.3447	5.30051	0.1
H	7.43034	2.36088	0.1
H	3.42321	7.35505	0.1
H	2.57248	5.59363	0.1
O	4.88299	7.73365	0.1
O	2.6414	9.91917	0.1
10
Next
H	1.20264	9.8008	0.1
H	4.61436	3.28992	0.1
H	1.53566	7.99896	0.1
H	1.58603	1.73832	0.1
H	8.51941	3.87432	0.1
H	5.84607	0.566998	0.1
H	3.2496	9.25785	0.1
H	1.1293	4.0701	0.1
O	7.21043	7.31596	0.1
O	4.13975	0.467006	0.1
10
Next
H	5.67887	6.20666	0.1
H	4.24474	8.30426	0.1
H	1.42245	6.78795	0.1
H	0.127551	2.20281	0.1
H	7.65431	2.09863	0.1
H	1.74084	5.57235	0.1
H	1.94516	9.29867	0.1
H	3.90291	6.93828	0.1
O	7.44222	5.43113	0.1
O	3.88155	2.27196	0.1
10
Next
H	2.71518	1.58322	0.1
H	1.19402	2.9389	0.1
H	9.02949	9.04702	0.1
H	8.48883	1.42407	0.1
H	5.04459	2.46113	0.1
H	4.93465	0.242614	0.1
H	0.667087	9.98953	0.1
H	9.2437	7.67998	0.1
O	3.98986	3.11969	0.1
O	6.75027	6.06059	0.1
10
Next
H	4.1382	1.03968	0.1
H	1.86706	2.96282	0.1
H	9.43022	8.64947	0.1
H	7.90478	2.67803	0.1
H	7.00164	3.89366	0.1
H	4.1161	9.44207	0.1
H	9.60198	0.414635	0.1
H	1.45274	6.20184	0.1
O	4.77098	3.86782	0.1
O	6.20365	6.49461	0.1
10
Next
H	4.38306	0.89835	0.1
H	0.625308	0.76238	0.1
H	9.04319	9.23345	0.1
H	3.44769	1.88513	0.1
H	4.64113	4.47247	0.1
H	5.93163	2.03279	0.1
H	0.464324	9.02602	0.1
H	8.05446	4.88621	0.1
O	6.72053	9.43318	0.1
O	7.10904	4.11677	0.1
10
Next
H	0.11074	2.19536	0.1
H	3.83025	7.51703	0.1
H	6.32959	2.45334	0.1
H	4.96839	9.30802	0.1
H	5.05103	7.86194	0.1
H	8.62465	2.6799	0.1
H	2.32569	2.61102	0.1
H	1.83655	7.54227	0.1
O	1.76172	4.63793	0.1
O	4.95678	5.91607	0.1
10
Next
H	5.8958	1.52721	0.1
H	5.49126	0.650778	0.1
H	9.37791	5.69472	0.1
H	4.88445	9.15307	0.1
H	2.54742	2.92534	0.1
H	9.47315	1.85198	0.1
H	7.88818	9.74587	0.1
H	0.990629	1.72281	0.1
O	6.22916	3.47784	0.1
O	1.4417	7.40896	0.1
10
Next
H	4.60248	1.68538	0.1
H	1.44229	2.47485	0.1
H	7.77237	0.381763	0.1
H	8.44628	1.0787	0.1
H	6.85758	4.08658	0.1
H	5.33724	0.953743	0.1
H	1.15945	0.52297	0.1
H	0.513722	5.44608	0.1
O	4.79394	4.12293	0.1
O	6.63729	5.97998	0.1
10
Next
H	0.455772	0.132056	0.1
H	2.36059	3.12315	0.1
H	2.25432	8.75854	0.1
H	5.93008	0.620793	0.1
H	2.24788	6.46776	0.1
H	9.15807	2.59351	0.1
H	3.26175	7.0736	0.1
H	0.704714	2.82276	0.1
O	6.63631	4.82374	0.1
O	7.70037	8.95412	0.1
10
Next
H	8.71973	1.77817	0.1
H	6.14724	6.41766	0.1
H	6.0296	2.97426	0.1
H	6.23715	9.76994	0.1
H	7.13215	7.74214	0.1
H	7.80581	2.90711	0.1
H	3.73328	9.99139	0.1
H	2.43778	8.6032	0.1
O	1.41477	6.4642	0.1
O	3.31847	2.28467	0.1
10
Next
H	4.43116	9.02527	0.1
H	0.0795356	9.88104	0.1
H	3.02989	5.34085	0.1
H	2.73372	9.2469	0.1
H	1.25943	0.786916	0.1
H	3.44041	2.55458	0.1
H	8.14179	2.29488	0.1
H	1.28567	4.22676	0.1
O	3.12758	3.96869	0.1
O	3.28189	7.13223	0.1
10
Next
H	0.780319	1.17678	0.1
H	4.25408	6.95187	0.1
H	5.42123	3.39398	0.1
H	4.59841	9.86969	0.1
H	5.21969	7.79775	0.1
H	8.16221	2.26232	0.1
H	2.73828	3.16894	0.1
H	1.53717	7.89484	0.1
O	1.26654	5.24389	0.1
O	3.97818	5.08166	0.1
10
Next
H	0.170054	0.00386646	0.1
H	2.43175	2.94327	0.1
H	2.50942	8.84055	0.1
H	5.57284	0.37412	0.1
H	2.18993	6.1472	0.1
H	9.64729	2.64365	0.1
H	3.5047	6.90398	0.1
H	0.377639	3.73067	0.1
O	6.48583	4.67612	0.1
O	7.17231	8.84678	0.1
10
Next
H	5.54833	8.77046	0.1
H	0.65647	2.34966	0.1
H	2.80262	0.0451807	0.1
H	8.26491	4.08831	0.1
H	6.41472	3.52362	0.1
H	6.00038	1.76049	0.1
H	1.55463	0.886165	0.1
H	0.227858	5.46959	0.1
O	4.28678	4.24842	0.1
O	3.67622	6.83565	0.1
10
Next
H	0.764058	9.94331	0.1
H	3.8164	2.54624	0.1
H	9.55558	7.86088	0.1
H	3.50148	1.26959	0.1
H	0.215997	2.09276	0.1
H	6.73845	9.67446	0.1
H	2.50403	7.11829	0.1
H	1.84227	4.34467	0.1
O	4.49342	7.82622	0.1
O	2.00639	0.836001	0.1
10
Next
H	1.23721	9.34639	0.1
H	3.33977	4.0119	0.1
H	7.81091	6.19304	0.1
H	3.45654	0.389329	0.1
H	8.18026	3.42692	0.1
H	6.64286	2.76893	0.1
H	4.84812	9.18559	0.1
H	2.71492	5.30438	0.1
O	7.10143	8.17017	0.1
O	4.47137	0.289537	0.1
10
Next
H	0.742587	1.13361	0.1
H	3.48407	6.99621	0.1
H	0.0964911	0.06218	0.1
H	4.58478	3.97094	0.1
H	1.52684	6.12842	0.1
H	2.89821	1.24046	0.1
H	2.67972	9.79256	0.1
H	1.84255	3.80968	0.1
O	7.46736	8.51381	0.1
O	5.73794	9.36934	0.1
10
Next
H	0.235271	8.4197	0.1
H	4.69679	3.59705	0.1
H	9.33912	5.65296	0.1
H	2.11848	0.514105	0.1
H	9.67175	2.18491	0.1
H	7.11784	1.23153	0.1
H	4.53654	7.41007	0.1
H	2.28643	4.18514	0.1
O	4.86407	9.03834	0.1
O	3.70155	8.94378	0.1
10
Next
H	9.73144	8.43124	0.1
H	2.43448	5.3824	0.1
H	9.94562	6.41447	0.1
H	4.04548	3.61862	0.1
H	9.1994	4.12682	0.1
H	5.56384	3.22847	0.1
H	4.32543	0.139684	0.1
H	0.455001	3.06488	0.1
O	6.04389	6.96562	0.1
O	3.44608	2.32186	0.1
10
Next
H	9.70383	7.66613	0.1
H	2.14733	4.43896	0.1
H	0.0552916	6.09713	0.1
H	3.44789	4.09029	0.1
H	9.54945	3.63427	0.1
H	5.19249	2.85759	0.1
H	5.06217	9.74951	0.1
H	0.260501	4.44486	0.1
O	6.95597	6.29682	0.1
O	3.81048	2.67319	0.1
10
Next
H	1.41966	9.228	0.1
H	3.59096	2.94312	0.1
H	0.090918	8.45568	0.1
H	2.05675	2.50932	0.1
H	0.92042	2.20177	0.1
H	7.6181	9.53259	0.1
H	2.69685	6.72914	0.1
H	2.67006	4.55151	0.1
O	5.24859	8.35309	0.1
O	2.15443	0.255911	0.1
10
Next
H	0.129291	8.00643	0.1
H	1.2703	5.60372	0.1
H	8.49636	5.95013	0.1
H	2.59839	4.70892	0.1
H	8.23746	2.39174	0.1
H	4.79052	3.70292	0.1
H	4.32309	8.10294	0.1
H	1.05524	2.4574	0.1
O	4.12646	5.5868	0.1
O	2.56323	1.79262	0.1
10
Next
H	9.7348	0.0172834	0.1
H	2.37304	6.58797	0.1
H	2.15226	8.67791	0.1
H	5.04296	5.24719	0.1
H	1.12492	6.01213	0.1
H	2.05054	0.515986	0.1
H	3.36889	9.01773	0.1
H	0.874116	3.19669	0.1
O	7.5265	9.16663	0.1
O	6.2708	9.04521	0.1
10
Next
H	9.18126	1.26308	0.1
H	2.70563	4.55114	0.1
H	5.97056	4.32833	0.1
H	3.64308	9.57534	0.1
H	6.3448	9.81726	0.1
H	7.78348	1.70308	0.1
H	4.38081	1.57025	0.1
H	1.24662	8.66332	0.1
O	1.24899	6.1557	0.1
O	3.73467	2.78897	0.1
10
Next
H	0.842913	9.41838	0.1
H	2.93789	4.89508	0.1
H	1.15723	8.11344	0.1
H	1.51998	1.61402	0.1
H	8.63189	2.25871	0.1
H	6.73326	0.630166	0.1
H	4.17071	8.84591	0.1
H	0.448914	4.44481	0.1
O	7.26244	7.18566	0.1
O	4.58901	2.13101	0.1
